*** SCH_PATH: /HOME/RIKU/INVERTER/INVERTER.SCH
.SUBCKT INVERTER VCC A Q VDD
**.PININFO VCC:B A:I Q:O VDD:B
XM1 Q A VCC VCC NMOS W=3.4U L=1U AS=0 AD=0 PS=0 PD=0 NRD=0 NRS=0 M=1
XM2 Q A VDD VDD PMOS W=3.4U L=1U AS=0 AD=0 PS=0 PD=0 NRD=0 NRS=0 M=1
.ENDS
.GLOBAL 0
.END
